PERFORM/On Peak 2019 v23_Perform_NY/On Peak 2019 v23/NYISO_onpeak2019_v23_shuntsRgens.RAW
 0,    100.00, 33, 0, 1, 60.00       / September 19, 2022 23:04:39; Simulator Version 22; BuildDate 2022_8_22


    1,'MORTIMER    ', 115.0000,1,  66,  66,   1,1.00315297,  91.238985, 1.10000, 0.90000, 1.10000, 0.90000
    2,'UNKNOWN124~1',  69.0000,1,  70,  70,   1,1.00746167,  77.458020, 1.10000, 0.90000, 1.10000, 0.90000
    3,'UNKNOWN124~2', 115.0000,1,  70,  70,   1,1.01901972,  82.853200, 1.10000, 0.90000, 1.10000, 0.90000
    4,'UNKNOWN124~3', 115.0000,1,  68,  68,   1,0.99589455,  94.644599, 1.10000, 0.90000, 1.10000, 0.90000
    5,'UNKNOWN124~4', 115.0000,1,  70,  70,   1,1.01586056,  86.236773, 1.10000, 0.90000, 1.10000, 0.90000
    6,'UNKNOWN124~5', 115.0000,2,  70,  70,   1,1.01999998,  82.877987, 1.10000, 0.90000, 1.10000, 0.90000
    7,'UNKNOWN124~6', 115.0000,1,  70,  70,   1,1.01680851,  82.130334, 1.10000, 0.90000, 1.10000, 0.90000
    8,'UNKNOWN124~7', 115.0000,1,  70,  70,   1,1.01925051,  82.404832, 1.10000, 0.90000, 1.10000, 0.90000
    9,'UNKNOWN124~8', 115.0000,1,  71,  71,   1,1.01398265,  69.112587, 1.10000, 0.90000, 1.10000, 0.90000
   10,'UNKNOWN124~9', 115.0000,1,  68,  68,   1,0.98851401,  91.216302, 1.10000, 0.90000, 1.10000, 0.90000
   11,'UNKNOWN12~10', 115.0000,1,  70,  70,   1,1.01935852,  82.808606, 1.10000, 0.90000, 1.10000, 0.90000
   12,'UNKNOWN12~11', 115.0000,1,  70,  70,   1,1.01842880,  81.269190, 1.10000, 0.90000, 1.10000, 0.90000
   13,'UNKNOWN12~12', 115.0000,1,  70,  70,   1,1.01686883,  80.456268, 1.10000, 0.90000, 1.10000, 0.90000
   14,'UNKNOWN12~13', 115.0000,1,  69,  69,   1,1.00600445,  78.669941, 1.10000, 0.90000, 1.10000, 0.90000
   15,'UNKNOWN12~14', 115.0000,2,  69,  69,   1,1.01999998, 100.009966, 1.10000, 0.90000, 1.10000, 0.90000
   16,'BOONVILLE   ', 115.0000,1,  69,  69,   1,1.01302743,  88.563477, 1.10000, 0.90000, 1.10000, 0.90000
   17,'UNKNOWN12~15', 138.0000,2,  75,  75,   1,1.00999999,  48.468989, 1.10000, 0.90000, 1.10000, 0.90000
   18,'GLENWOOD L~1',  69.0000,2,  75,  75,   1,1.00999999,  58.810927, 1.10000, 0.90000, 1.10000, 0.90000
   19,'NORTHPORT   ', 115.0000,2,  75,  75,   1,1.01999998,  59.140948, 1.10000, 0.90000, 1.10000, 0.90000
   20,'UNKNOWN12~16', 115.0000,1,  69,  69,   1,1.01768422, 101.869669, 1.10000, 0.90000, 1.10000, 0.90000
   21,'UNKNOWN12~17', 115.0000,2,  69,  69,   1,1.01835072, 101.912795, 1.10000, 0.90000, 1.10000, 0.90000
   22,'UNKNOWN12~18',  69.0000,1,  70,  70,   1,1.00960958,  77.146713, 1.10000, 0.90000, 1.10000, 0.90000
   23,'UNKNOWN12~19', 115.0000,1,  69,  69,   1,1.01603043,  80.051115, 1.10000, 0.90000, 1.10000, 0.90000
   24,'UNKNOWN12~20', 115.0000,2,  67,  67,   1,1.01999998,  98.844230, 1.10000, 0.90000, 1.10000, 0.90000
   25,'UNKNOWN12~21', 115.0000,1,  69,  69,   1,1.01994491,  97.666535, 1.10000, 0.90000, 1.10000, 0.90000
   26,'UNKNOWN12~22', 345.0000,2,  74,  74,   1,1.01999998,  62.918849, 1.10000, 0.90000, 1.10000, 0.90000
   27,'UNKNOWN12~23', 115.0000,2,  67,  67,   1,1.01999998,  93.169361, 1.10000, 0.90000, 1.10000, 0.90000
   28,'UNKNOWN12~24', 115.0000,1,  69,  69,   1,1.01996720,  98.650949, 1.10000, 0.90000, 1.10000, 0.90000
   29,'UNKNOWN12~25', 115.0000,2,  67,  67,   1,1.01999998,  93.804971, 1.10000, 0.90000, 1.10000, 0.90000
   30,'UNKNOWN12~26', 115.0000,2,  67,  67,   1,1.01999998,  94.670534, 1.10000, 0.90000, 1.10000, 0.90000
   31,'UNKNOWN12~27', 115.0000,2,  70,  70,   1,1.01999998,  83.550610, 1.10000, 0.90000, 1.10000, 0.90000
   32,'UNKNOWN12~28', 115.0000,2,  70,  70,   1,1.01999998,  83.567228, 1.10000, 0.90000, 1.10000, 0.90000
   33,'UNKNOWN12~29', 115.0000,2,  65,  65,   1,1.01999998, 100.246283, 1.10000, 0.90000, 1.10000, 0.90000
   34,'HAMMERHILL  ', 115.0000,2,  67,  67,   1,1.01999998, 102.984527, 1.10000, 0.90000, 1.10000, 0.90000
   35,'UNKNOWN12~30', 115.0000,2,  68,  68,   1,1.00530899,  92.949019, 1.10000, 0.90000, 1.10000, 0.90000
   36,'UNKNOWN12~31', 115.0000,1,  68,  68,   1,1.00515783,  92.983757, 1.10000, 0.90000, 1.10000, 0.90000
   37,'UNKNOWN12~32', 115.0000,2,  65,  65,   1,1.01999998,  97.581178, 1.10000, 0.90000, 1.10000, 0.90000
   38,'BLISS WIND~1', 115.0000,2,  65,  65,   1,1.01999998,  98.909178, 1.10000, 0.90000, 1.10000, 0.90000
   39,'UNKNOWN12~33', 230.0000,2,  65,  65,   1,1.01999998, 102.397411, 1.10000, 0.90000, 1.10000, 0.90000
   40,'UNKNOWN12~34', 115.0000,1,  69,  69,   1,1.02031171, 104.089631, 1.10000, 0.90000, 1.10000, 0.90000
   41,'UNKNOWN12~35', 115.0000,2,  65,  65,   1,1.01999998,  96.673924, 1.10000, 0.90000, 1.10000, 0.90000
   42,'UNKNOWN12~36', 115.0000,1,  65,  65,   1,1.02002358,  95.378442, 1.10000, 0.90000, 1.10000, 0.90000
   43,'DUGAN       ', 115.0000,1,  65,  65,   1,1.01890945,  95.085078, 1.10000, 0.90000, 1.10000, 0.90000
   44,'UNKNOWN12~37', 115.0000,1,  65,  65,   1,1.01891935,  95.091226, 1.10000, 0.90000, 1.10000, 0.90000
   45,'TAP124231   ', 115.0000,1,  65,  65,   1,1.01892757,  95.093206, 1.10000, 0.90000, 1.10000, 0.90000
   46,'W OLEAN     ', 115.0000,1,  65,  65,   1,1.01997340,  95.366052, 1.10000, 0.90000, 1.10000, 0.90000
   47,'VALLEY CAT  ', 115.0000,1,  65,  65,   1,1.02178490,  95.627129, 1.10000, 0.90000, 1.10000, 0.90000
   48,'MACHIAS #13 ', 115.0000,1,  65,  65,   1,1.02012599,  95.828435, 1.10000, 0.90000, 1.10000, 0.90000
   49,'VALLEY      ', 115.0000,1,  69,  69,   1,1.01785409,  82.304101, 1.10000, 0.90000, 1.10000, 0.90000
   50,'UNKNOWN12~38', 115.0000,1,  69,  69,   1,1.00711572,  99.727298, 1.10000, 0.90000, 1.10000, 0.90000
   51,'UNKNOWN12~39', 115.0000,1,  67,  67,   1,1.01792514,  94.754729, 1.10000, 0.90000, 1.10000, 0.90000
   52,'UNKNOWN12~40', 115.0000,2,  67,  67,   1,1.01999998,  95.180400, 1.10000, 0.90000, 1.10000, 0.90000
   53,'UNKNOWN12~41', 115.0000,2,  67,  67,   1,1.01999998,  97.037105, 1.10000, 0.90000, 1.10000, 0.90000
   54,'UNKNOWN12~42', 230.0000,1,  67,  67,   1,1.02623677,  95.875823, 1.10000, 0.90000, 1.10000, 0.90000
   55,'UNKNOWN12~43', 115.0000,1,  67,  67,   1,1.01728559,  91.587147, 1.10000, 0.90000, 1.10000, 0.90000
   56,'UNKNOWN12~44', 115.0000,1,  67,  67,   1,1.01675332,  90.920398, 1.10000, 0.90000, 1.10000, 0.90000
   57,'UNKNOWN12~45', 115.0000,1,  67,  67,   1,1.01682305,  90.262302, 1.10000, 0.90000, 1.10000, 0.90000
   58,'UNKNOWN12~46', 115.0000,1,  67,  67,   1,1.01926911, 102.675092, 1.10000, 0.90000, 1.10000, 0.90000
   59,'UNKNOWN12~47', 115.0000,1,  69,  69,   1,1.02013278,  97.659930, 1.10000, 0.90000, 1.10000, 0.90000
   60,'UNKNOWN12~48',  69.0000,2,  69,  69,   1,1.01999998,  77.540378, 1.10000, 0.90000, 1.10000, 0.90000
   61,'UNKNOWN12~49', 115.0000,1,  67,  67,   1,1.01727998,  90.014510, 1.10000, 0.90000, 1.10000, 0.90000
   62,'UNKNOWN12~50', 345.0000,1,  70,  70,   1,1.02001321,  84.670583, 1.10000, 0.90000, 1.10000, 0.90000
   63,'UNKNOWN12~51', 345.0000,2,  70,  70,   1,1.01999998,  84.686354, 1.10000, 0.90000, 1.10000, 0.90000
   64,'UNKNOWN12~52', 115.0000,1,  69,  69,   1,1.00504172,  97.164885, 1.10000, 0.90000, 1.10000, 0.90000
   65,'BERRY RD    ', 115.0000,1,  65,  65,   1,1.02108812,  94.525720, 1.10000, 0.90000, 1.10000, 0.90000
   66,'BAKER ST    ', 115.0000,1,  65,  65,   1,1.01802731,  93.599949, 1.10000, 0.90000, 1.10000, 0.90000
   67,'CUMMINS     ', 115.0000,1,  65,  65,   1,1.01810837,  93.593515, 1.10000, 0.90000, 1.10000, 0.90000
   68,'SILVER CREEK', 115.0000,1,  65,  65,   1,1.01801825,  94.028189, 1.10000, 0.90000, 1.10000, 0.90000
   69,'FALCONER    ', 115.0000,2,  65,  65,   1,1.01999998,  94.323574, 1.10000, 0.90000, 1.10000, 0.90000
   70,'UNKNOWN12~53', 115.0000,1,  65,  65,   1,1.01984000,  94.280202, 1.10000, 0.90000, 1.10000, 0.90000
   71,'WESTFIELD ~1', 115.0000,1,  65,  65,   1,1.02261579,  94.730243, 1.10000, 0.90000, 1.10000, 0.90000
   72,'UNKNOWN12~54', 115.0000,1,  65,  65,   1,1.02016914,  94.466229, 1.10000, 0.90000, 1.10000, 0.90000
   73,'LUDIUM      ', 115.0000,1,  65,  65,   1,1.02011395,  94.457343, 1.10000, 0.90000, 1.10000, 0.90000
   74,'BENNETT RD  ', 115.0000,1,  65,  65,   1,1.01993310,  94.434291, 1.10000, 0.90000, 1.10000, 0.90000
   75,'E DUNKIRK   ', 115.0000,1,  65,  65,   1,1.01972198,  94.403405, 1.10000, 0.90000, 1.10000, 0.90000
   76,'UNKNOWN12~55', 115.0000,1,  65,  65,   1,1.01971352,  94.401390, 1.10000, 0.90000, 1.10000, 0.90000
   77,'MOON SWITC~1', 115.0000,1,  65,  65,   1,1.02037776,  94.326968, 1.10000, 0.90000, 1.10000, 0.90000
   78,'HARTFIELD   ', 115.0000,1,  65,  65,   1,1.02159476,  94.490278, 1.10000, 0.90000, 1.10000, 0.90000
   79,'EAST 13TH ~1', 345.0000,2,  74,  74,   1,1.01999998,  62.703138, 1.10000, 0.90000, 1.10000, 0.90000
   80,'UNKNOWN12~56', 115.0000,2,  69,  69,   1,1.01999998,  98.701090, 1.10000, 0.90000, 1.10000, 0.90000
   81,'WESTOVER    ', 115.0000,2,  67,  67,   1,1.02209997,  87.927983, 1.10000, 0.90000, 1.10000, 0.90000
   82,'UNKNOWN12~57', 115.0000,2,  69,  69,   1,1.01999998,  86.210989, 1.10000, 0.90000, 1.10000, 0.90000
   83,'UNKNOWN12~58', 115.0000,2,  69,  69,   1,1.01999998,  97.718355, 1.10000, 0.90000, 1.10000, 0.90000
   84,'UNKNOWN12~59', 115.0000,2,  70,  70,   1,1.01999998,  83.448103, 1.10000, 0.90000, 1.10000, 0.90000
   85,'COLD SPRIN~1', 115.0000,1,  65,  65,   1,1.01790488,  93.824772, 1.10000, 0.90000, 1.10000, 0.90000
   86,'UNKNOWN12~60', 115.0000,1,  65,  65,   1,1.01824486,  96.277595, 1.10000, 0.90000, 1.10000, 0.90000
   87,'UNKNOWN12~61', 115.0000,1,  65,  65,   1,1.01782441,  96.436459, 1.10000, 0.90000, 1.10000, 0.90000
   88,'YORKSHIRE   ', 115.0000,1,  65,  65,   1,1.01764822,  96.703232, 1.10000, 0.90000, 1.10000, 0.90000
   89,'ARCADE      ', 115.0000,1,  65,  65,   1,1.01762938,  96.797263, 1.10000, 0.90000, 1.10000, 0.90000
   90,'BIXBY HILL  ', 115.0000,1,  65,  65,   1,1.01777816,  97.064419, 1.10000, 0.90000, 1.10000, 0.90000
   91,'UNKNOWN12~62', 115.0000,1,  65,  65,   1,1.01811039,  97.448604, 1.10000, 0.90000, 1.10000, 0.90000
   92,'UNKNOWN12~63', 115.0000,1,  66,  66,   1,1.01285541,  93.249711, 1.10000, 0.90000, 1.10000, 0.90000
   93,'UNKNOWN12~64', 115.0000,1,  66,  66,   1,1.01868224,  96.091493, 1.10000, 0.90000, 1.10000, 0.90000
   94,'UNKNOWN12~65', 115.0000,1,  66,  66,   1,1.01919937,  98.604600, 1.10000, 0.90000, 1.10000, 0.90000
   95,'UNKNOWN12~66', 115.0000,2,  66,  66,   1,1.01999998,  98.791747, 1.10000, 0.90000, 1.10000, 0.90000
   96,'UNKNOWN12~67', 115.0000,1,  66,  66,   1,1.01711810,  98.123789, 1.10000, 0.90000, 1.10000, 0.90000
   97,'UNKNOWN12~68', 115.0000,1,  66,  66,   1,1.01718402,  98.142578, 1.10000, 0.90000, 1.10000, 0.90000
   98,'UNKNOWN12~69', 115.0000,1,  66,  66,   1,1.01428139,  93.738308, 1.10000, 0.90000, 1.10000, 0.90000
   99,'UNKNOWN12~70', 115.0000,1,  66,  66,   1,1.01208389,  93.082884, 1.10000, 0.90000, 1.10000, 0.90000
  100,'UNKNOWN12~71', 115.0000,1,  66,  66,   1,1.01027870,  92.548264, 1.10000, 0.90000, 1.10000, 0.90000
  101,'UNKNOWN12~72', 115.0000,1,  65,  65,   1,1.00095797,  92.582572, 1.10000, 0.90000, 1.10000, 0.90000
  102,'N AKRON     ', 115.0000,1,  65,  65,   1,1.00099123,  92.590229, 1.10000, 0.90000, 1.10000, 0.90000
  103,'UNKNOWN12~73', 115.0000,1,  65,  65,   1,1.00175118,  92.781993, 1.10000, 0.90000, 1.10000, 0.90000
  104,'TONAWANDA   ', 115.0000,1,  65,  65,   1,1.01468861,  96.154788, 1.10000, 0.90000, 1.10000, 0.90000
  105,'GETZVILLE   ', 115.0000,1,  65,  65,   1,1.01487875,  96.035916, 1.10000, 0.90000, 1.10000, 0.90000
  106,'UNKNOWN12~74', 115.0000,1,  65,  65,   1,1.01545656,  96.168654, 1.10000, 0.90000, 1.10000, 0.90000
  107,'UNKNOWN12~75', 115.0000,1,  65,  65,   1,1.01668441,  96.465719, 1.10000, 0.90000, 1.10000, 0.90000
  108,'UNKNOWN12~76', 115.0000,1,  67,  67,   1,1.02128196,  90.096458, 1.10000, 0.90000, 1.10000, 0.90000
  109,'UNKNOWN12~77', 115.0000,1,  67,  67,   1,1.02086914,  90.385539, 1.10000, 0.90000, 1.10000, 0.90000
  110,'UNKNOWN12~78', 115.0000,1,  67,  67,   1,1.01990402,  88.498365, 1.10000, 0.90000, 1.10000, 0.90000
  111,'UNKNOWN12~79', 115.0000,1,  67,  67,   1,1.01729310,  89.641684, 1.10000, 0.90000, 1.10000, 0.90000
  112,'UNKNOWN12~80', 115.0000,1,  67,  67,   1,1.01848078,  87.229302, 1.10000, 0.90000, 1.10000, 0.90000
  113,'UNKNOWN12~81', 115.0000,1,  67,  67,   1,1.01774907,  87.176983, 1.10000, 0.90000, 1.10000, 0.90000
  114,'UNKNOWN12~82', 115.0000,1,  67,  67,   1,1.01797771,  87.370550, 1.10000, 0.90000, 1.10000, 0.90000
  115,'KATTELVILLE ', 115.0000,1,  67,  67,   1,1.02015293,  86.594675, 1.10000, 0.90000, 1.10000, 0.90000
  116,'UNKNOWN12~83', 115.0000,2,  67,  67,   1,1.01999998,  88.370217, 1.10000, 0.90000, 1.10000, 0.90000
  117,'NORTH ENDI~1', 115.0000,1,  67,  67,   1,1.02064300,  87.596486, 1.10000, 0.90000, 1.10000, 0.90000
  118,'UNKNOWN12~84', 115.0000,1,  67,  67,   1,1.01856124,  87.281649, 1.10000, 0.90000, 1.10000, 0.90000
  119,'UNKNOWN12~85', 115.0000,1,  67,  67,   1,1.01835239,  87.370912, 1.10000, 0.90000, 1.10000, 0.90000
  120,'UNKNOWN12~86', 115.0000,1,  67,  67,   1,1.01859164,  87.588638, 1.10000, 0.90000, 1.10000, 0.90000
  121,'UNKNOWN12~87', 115.0000,1,  67,  67,   1,1.01978409,  87.419810, 1.10000, 0.90000, 1.10000, 0.90000
  122,'ROBBLE AVE  ', 115.0000,1,  67,  67,   1,1.02083528,  87.636634, 1.10000, 0.90000, 1.10000, 0.90000
  123,'CASTLE GAR~1', 115.0000,1,  67,  67,   1,1.01945174,  87.359970, 1.10000, 0.90000, 1.10000, 0.90000
  124,'UNKNOWN12~88', 115.0000,1,  67,  67,   1,1.01886714,  90.715301, 1.10000, 0.90000, 1.10000, 0.90000
  125,'UNKNOWN12~89', 115.0000,1,  69,  69,   1,1.01715779, 106.887966, 1.10000, 0.90000, 1.10000, 0.90000
  126,'UNKNOWN12~90', 115.0000,1,  69,  69,   1,1.01716137, 106.858651, 1.10000, 0.90000, 1.10000, 0.90000
  127,'UNKNOWN12~91', 115.0000,2,  70,  70,   1,1.01999998,  84.333602, 1.10000, 0.90000, 1.10000, 0.90000
  128,'UNKNOWN12~92', 115.0000,2,  66,  66,   1,1.01999998,  98.926903, 1.10000, 0.90000, 1.10000, 0.90000
  129,'UNKNOWN12~93', 115.0000,1,  66,  66,   1,1.00585961,  89.184997, 1.10000, 0.90000, 1.10000, 0.90000
  130,'UNKNOWN12~94', 115.0000,1,  66,  66,   1,1.00446665,  90.010384, 1.10000, 0.90000, 1.10000, 0.90000
  131,'UNKNOWN12~95', 115.0000,1,  67,  67,   1,1.01802754,  94.781285, 1.10000, 0.90000, 1.10000, 0.90000
  132,'UNKNOWN12~96', 230.0000,1,  67,  67,   1,1.02111614,  97.634385, 1.10000, 0.90000, 1.10000, 0.90000
  133,'UNKNOWN12~97', 115.0000,1,  67,  67,   1,1.01759040,  89.806626, 1.10000, 0.90000, 1.10000, 0.90000
  134,'ANGOLA      ', 115.0000,1,  65,  65,   1,1.01600313,  93.690333, 1.10000, 0.90000, 1.10000, 0.90000
  135,'SPRINGVILLE ', 115.0000,1,  65,  65,   1,1.01766407,  95.878541, 1.10000, 0.90000, 1.10000, 0.90000
  136,'COBBLE HILL ', 115.0000,1,  65,  65,   1,1.01763082,  95.921988, 1.10000, 0.90000, 1.10000, 0.90000
  137,'BIG TREE    ', 115.0000,1,  65,  65,   1,1.02164721,  95.990618, 1.10000, 0.90000, 1.10000, 0.90000
  138,'UNKNOWN12~98', 230.0000,2,  65,  65,   1,1.01945424, 102.224108, 1.10000, 0.90000, 1.10000, 0.90000
  139,'PERRY #162  ', 115.0000,1,  65,  65,   1,1.01797855,  98.494381, 1.10000, 0.90000, 1.10000, 0.90000
  140,'SOUTH PERRY ', 115.0000,1,  65,  65,   1,1.01802242,  98.510616, 1.10000, 0.90000, 1.10000, 0.90000
  141,'UNKNOWN12~99', 115.0000,1,  65,  65,   1,1.01338124,  96.836154, 1.10000, 0.90000, 1.10000, 0.90000
  142,'UNKNOWN1~100', 115.0000,1,  65,  65,   1,1.01260221,  96.515791, 1.10000, 0.90000, 1.10000, 0.90000
  143,'UNKNOWN1~101', 115.0000,1,  65,  65,   1,1.02519047,  96.615273, 1.10000, 0.90000, 1.10000, 0.90000
  144,'UNKNOWN1~102', 115.0000,1,  65,  65,   1,1.02221274,  96.250391, 1.10000, 0.90000, 1.10000, 0.90000
  145,'ERIE ST     ', 115.0000,1,  65,  65,   1,1.02077448,  96.082327, 1.10000, 0.90000, 1.10000, 0.90000
  146,'DEPEW       ', 115.0000,1,  65,  65,   1,1.02038133,  95.970674, 1.10000, 0.90000, 1.10000, 0.90000
  147,'UNKNOWN1~103', 115.0000,1,  67,  67,   1,1.01827598,  91.054222, 1.10000, 0.90000, 1.10000, 0.90000
  148,'UNKNOWN1~104', 115.0000,1,  67,  67,   1,1.01938415,  89.552468, 1.10000, 0.90000, 1.10000, 0.90000
  149,'UNKNOWN1~105', 115.0000,1,  67,  67,   1,1.01948106,  89.592903, 1.10000, 0.90000, 1.10000, 0.90000
  150,'UNKNOWN1~106', 115.0000,1,  67,  67,   1,1.01998675,  89.530509, 1.10000, 0.90000, 1.10000, 0.90000
  151,'UNKNOWN1~107', 115.0000,1,  67,  67,   1,1.01999676,  89.530646, 1.10000, 0.90000, 1.10000, 0.90000
  152,'UNKNOWN1~108', 115.0000,1,  67,  67,   1,1.01961601,  94.294819, 1.10000, 0.90000, 1.10000, 0.90000
  153,'LABRADOR    ', 115.0000,1,  67,  67,   1,1.01547682,  88.197591, 1.10000, 0.90000, 1.10000, 0.90000
  154,'CORTLAND    ', 115.0000,1,  67,  67,   1,1.01536310,  89.102536, 1.10000, 0.90000, 1.10000, 0.90000
  155,'UNKNOWN1~109', 115.0000,1,  67,  67,   1,1.01510823,  89.038524, 1.10000, 0.90000, 1.10000, 0.90000
  156,'STARR RD    ', 115.0000,1,  67,  67,   1,1.01463485,  88.885842, 1.10000, 0.90000, 1.10000, 0.90000
  157,'SUNY        ', 115.0000,1,  67,  67,   1,1.01462138,  88.878035, 1.10000, 0.90000, 1.10000, 0.90000
  158,'UNKNOWN1~110', 115.0000,1,  67,  67,   1,1.01476634,  88.908593, 1.10000, 0.90000, 1.10000, 0.90000
  159,'DAVIS RD    ', 115.0000,1,  65,  65,   1,1.02397728,  96.274610, 1.10000, 0.90000, 1.10000, 0.90000
  160,'UNKNOWN1~111', 115.0000,1,  65,  65,   1,1.02098906,  95.968010, 1.10000, 0.90000, 1.10000, 0.90000
  161,'UNKNOWN1~112', 115.0000,2,  65,  65,   1,1.01999998,  95.028156, 1.10000, 0.90000, 1.10000, 0.90000
  162,'UNKNOWN1~113', 115.0000,1,  65,  65,   1,1.01982081,  95.014147, 1.10000, 0.90000, 1.10000, 0.90000
  163,'UNKNOWN1~114', 115.0000,1,  65,  65,   1,1.01929033,  94.992038, 1.10000, 0.90000, 1.10000, 0.90000
  164,'UNKNOWN1~115', 115.0000,1,  65,  65,   1,1.01928592,  94.990979, 1.10000, 0.90000, 1.10000, 0.90000
  165,'UNKNOWN1~116', 115.0000,1,  65,  65,   1,1.01747870,  95.729882, 1.10000, 0.90000, 1.10000, 0.90000
  166,'UNKNOWN1~117', 115.0000,1,  65,  65,   1,1.01771474,  95.788096, 1.10000, 0.90000, 1.10000, 0.90000
  167,'PINE GROVE  ', 115.0000,1,  67,  67,   1,1.01223791,  93.229036, 1.10000, 0.90000, 1.10000, 0.90000
  168,'BRIDGEPORT  ', 115.0000,1,  69,  69,   1,1.01303697,  90.457434, 1.10000, 0.90000, 1.10000, 0.90000
  169,'UNKNOWN1~118', 115.0000,1,  67,  67,   1,1.01291800,  92.761591, 1.10000, 0.90000, 1.10000, 0.90000
  170,'UNKNOWN1~119', 115.0000,1,  67,  67,   1,1.01365221,  92.658059, 1.10000, 0.90000, 1.10000, 0.90000
  171,'TEAL        ', 115.0000,1,  67,  67,   1,1.01332903,  92.639427, 1.10000, 0.90000, 1.10000, 0.90000
  172,'HOPKINS     ', 115.0000,1,  67,  67,   1,1.01142871,  93.019206, 1.10000, 0.90000, 1.10000, 0.90000
  173,'WOODARD     ', 115.0000,1,  67,  67,   1,1.01011097,  93.646251, 1.10000, 0.90000, 1.10000, 0.90000
  174,'BELMONT     ', 115.0000,1,  67,  67,   1,1.00943840,  93.353441, 1.10000, 0.90000, 1.10000, 0.90000
  175,'UNKNOWN1~120', 115.0000,1,  67,  67,   1,1.00842774,  93.102254, 1.10000, 0.90000, 1.10000, 0.90000
  176,'UNKNOWN1~121', 115.0000,1,  67,  67,   1,1.00723553,  92.755465, 1.10000, 0.90000, 1.10000, 0.90000
  177,'UNKNOWN1~122', 115.0000,1,  67,  67,   1,1.00745904,  92.814628, 1.10000, 0.90000, 1.10000, 0.90000
  178,'UNKNOWN1~123', 115.0000,1,  67,  67,   1,1.00727904,  92.767534, 1.10000, 0.90000, 1.10000, 0.90000
  179,'UNKNOWN1~124', 115.0000,1,  67,  67,   1,1.00736070,  92.785128, 1.10000, 0.90000, 1.10000, 0.90000
  180,'MILTON      ', 115.0000,1,  67,  67,   1,1.00819635,  92.968239, 1.10000, 0.90000, 1.10000, 0.90000
  181,'UNKNOWN1~125', 115.0000,1,  67,  67,   1,1.00724459,  92.759003, 1.10000, 0.90000, 1.10000, 0.90000
  182,'ANHEUSER B~1', 115.0000,1,  67,  67,   1,1.00360763,  94.909556, 1.10000, 0.90000, 1.10000, 0.90000
  183,'LYSANDER    ', 115.0000,1,  67,  67,   1,1.00364363,  94.918312, 1.10000, 0.90000, 1.10000, 0.90000
  184,'G E         ', 115.0000,1,  67,  67,   1,1.01039457,  93.768368, 1.10000, 0.90000, 1.10000, 0.90000
  185,'SORRELL HILL', 115.0000,1,  67,  67,   1,1.00479519,  94.735960, 1.10000, 0.90000, 1.10000, 0.90000
  186,'UNKNOWN125~1', 115.0000,1,  69,  69,   1,1.02056992,  80.871830, 1.10000, 0.90000, 1.10000, 0.90000
  187,'UNKNOWN125~2', 115.0000,1,  69,  69,   1,1.01867938,  81.793612, 1.10000, 0.90000, 1.10000, 0.90000
  188,'UNKNOWN125~3', 115.0000,1,  69,  69,   1,0.98446250,  74.310874, 1.10000, 0.90000, 1.10000, 0.90000
  189,'UNKNOWN125~4', 115.0000,1,  69,  69,   1,0.99251544,  77.303644, 1.10000, 0.90000, 1.10000, 0.90000
  190,'UNKNOWN125~5', 115.0000,1,  68,  68,   1,1.00469983,  97.530040, 1.10000, 0.90000, 1.10000, 0.90000
  191,'UNKNOWN125~6', 115.0000,1,  68,  68,   1,0.99545968,  91.563125, 1.10000, 0.90000, 1.10000, 0.90000
  192,'UNKNOWN125~7', 115.0000,1,  68,  68,   1,1.00076711,  94.616616, 1.10000, 0.90000, 1.10000, 0.90000
  193,'UNKNOWN125~8', 115.0000,1,  68,  68,   1,0.99563956,  94.583688, 1.10000, 0.90000, 1.10000, 0.90000
  194,'UNKNOWN125~9', 115.0000,2,  70,  70,   1,1.01850772,  80.579621, 1.10000, 0.90000, 1.10000, 0.90000
  195,'UNKNOWN12~10', 115.0000,1,  70,  70,   1,1.01846027,  80.567791, 1.10000, 0.90000, 1.10000, 0.90000
  196,'RISER125055 ', 115.0000,1,  70,  70,   1,1.01738226,  80.483678, 1.10000, 0.90000, 1.10000, 0.90000
  197,'UNKNOWN12~11', 115.0000,1,  66,  66,   1,1.00961101,  93.024335, 1.10000, 0.90000, 1.10000, 0.90000
  198,'HOGAN RD    ', 115.0000,1,  66,  66,   1,0.99849707,  90.857540, 1.10000, 0.90000, 1.10000, 0.90000
  199,'UNKNOWN12~12', 115.0000,1,  66,  66,   1,1.00270748,  91.131813, 1.10000, 0.90000, 1.10000, 0.90000
  200,'STATION #52 ', 115.0000,1,  66,  66,   1,1.00171983,  91.829079, 1.10000, 0.90000, 1.10000, 0.90000
...
0 / END OF BUS DATA, BEGIN LOAD DATA
    1,'1 ',1,  66,  66,   115.188,     0.000,     0.000,     0.000,     0.000,     0.000,   1,1, 0
    2,'1 ',1,  70,  70,     1.539,     0.000,     0.000,     0.000,     0.000,     0.000,   1,1, 0
    3,'1 ',1,  70,  70,     3.422,     0.000,     0.000,     0.000,     0.000,     0.000,   1,1, 0
    4,'1 ',1,  68,  68,    74.047,     0.000,     0.000,     0.000,     0.000,     0.000,   1,1, 0
    5,'1 ',1,  70,  70,     3.422,     0.000,     0.000,     0.000,     0.000,     0.000,   1,1, 0
    6,'1 ',1,  70,  70,     3.422,     0.000,     0.000,     0.000,     0.000,     0.000,   1,1, 0
    7,'1 ',1,  70,  70,     6.844,     0.000,     0.000,     0.000,     0.000,     0.000,   1,1, 0
    8,'1 ',1,  70,  70,     6.844,     0.000,     0.000,     0.000,     0.000,     0.000,   1,1, 0
    9,'1 ',1,  71,  71,    36.728,     0.000,     0.000,     0.000,     0.000,     0.000,   1,1, 0
   10,'1 ',1,  68,  68,    14.809,     0.000,     0.000,     0.000,     0.000,     0.000,   1,1, 0
   11,'1 ',1,  70,  70,     6.844,     0.000,     0.000,     0.000,     0.000,     0.000,   1,1, 0
   12,'1 ',1,  70,  70,     3.422,     0.000,     0.000,     0.000,     0.000,     0.000,   1,1, 0
   13,'1 ',1,  70,  70,    13.687,     0.000,     0.000,     0.000,     0.000,     0.000,   1,1, 0
   14,'1 ',1,  69,  69,     4.154,     0.000,     0.000,     0.000,     0.000,     0.000,   1,1, 0
   15,'1 ',1,  69,  69,     4.154,     0.000,     0.000,     0.000,     0.000,     0.000,   1,1, 0
   16,'1 ',1,  69,  69,    10.385,     0.000,     0.000,     0.000,     0.000,     0.000,   1,1, 0
   17,'1 ',1,  75,  75,    44.519,     0.000,     0.000,     0.000,     0.000,     0.000,   1,1, 0
   18,'1 ',1,  75,  75,    41.736,     0.000,     0.000,     0.000,     0.000,     0.000,   1,1, 0
   19,'1 ',1,  75,  75,    77.351,     0.000,     0.000,     0.000,     0.000,     0.000,   1,1, 0
   19,'EX',0, 101, 101,  -135.769,     0.000,     0.000,     0.000,     0.000,     0.000,   1,1, 0
   20,'1 ',1,  69,  69,     8.308,     0.000,     0.000,     0.000,     0.000,     0.000,   1,1, 0
   21,'1 ',1,  69,  69,     8.308,     0.000,     0.000,     0.000,     0.000,     0.000,   1,1, 0
   22,'1 ',1,  70,  70,     1.539,     0.000,     0.000,     0.000,     0.000,     0.000,   1,1, 0
   23,'1 ',1,  69,  69,    10.385,     0.000,     0.000,     0.000,     0.000,     0.000,   1,1, 0
   24,'1 ',1,  67,  67,    20.893,     0.000,     0.000,     0.000,     0.000,     0.000,   1,1, 0
   25,'1 ',1,  69,  69,     2.077,     0.000,     0.000,     0.000,     0.000,     0.000,   1,1, 0
   27,'1 ',1,  67,  67,     8.357,     0.000,     0.000,     0.000,     0.000,     0.000,   1,1, 0
   28,'1 ',1,  69,  69,     2.077,     0.000,     0.000,     0.000,     0.000,     0.000,   1,1, 0
   29,'1 ',1,  67,  67,    16.715,     0.000,     0.000,     0.000,     0.000,     0.000,   1,1, 0
   30,'1 ',1,  67,  67,     8.357,     0.000,     0.000,     0.000,     0.000,     0.000,   1,1, 0
   31,'1 ',1,  70,  70,     3.422,     0.000,     0.000,     0.000,     0.000,     0.000,   1,1, 0
   32,'1 ',1,  70,  70,     3.422,     0.000,     0.000,     0.000,     0.000,     0.000,   1,1, 0
   33,'1 ',1,  65,  65,     5.050,     0.000,     0.000,     0.000,     0.000,     0.000,   1,1, 0
   34,'1 ',1,  67,  67,     8.357,     0.000,     0.000,     0.000,     0.000,     0.000,   1,1, 0
   35,'1 ',1,  68,  68,    35.239,     0.000,     0.000,     0.000,     0.000,     0.000,   1,1, 0
   36,'1 ',1,  68,  68,    35.239,     0.000,     0.000,     0.000,     0.000,     0.000,   1,1, 0
   37,'1 ',1,  65,  65,     7.575,     0.000,     0.000,     0.000,     0.000,     0.000,   1,1, 0
   38,'1 ',1,  65,  65,     5.050,     0.000,     0.000,     0.000,     0.000,     0.000,   1,1, 0
   40,'1 ',1,  69,  69,     2.077,     0.000,     0.000,     0.000,     0.000,     0.000,   1,1, 0
   41,'1 ',1,  65,  65,     5.050,     0.000,     0.000,     0.000,     0.000,     0.000,   1,1, 0
   42,'1 ',1,  65,  65,    17.675,     0.000,     0.000,     0.000,     0.000,     0.000,   1,1, 0
   43,'1 ',1,  65,  65,     5.050,     0.000,     0.000,     0.000,     0.000,     0.000,   1,1, 0
   44,'1 ',1,  65,  65,     2.525,     0.000,     0.000,     0.000,     0.000,     0.000,   1,1, 0
   45,'1 ',1,  65,  65,     7.575,     0.000,     0.000,     0.000,     0.000,     0.000,   1,1, 0
   46,'1 ',1,  65,  65,     5.050,     0.000,     0.000,     0.000,     0.000,     0.000,   1,1, 0
   47,'1 ',1,  65,  65,     2.525,     0.000,     0.000,     0.000,     0.000,     0.000,   1,1, 0
   48,'1 ',1,  65,  65,    10.100,     0.000,     0.000,     0.000,     0.000,     0.000,   1,1, 0
   49,'1 ',1,  69,  69,     4.154,     0.000,     0.000,     0.000,     0.000,     0.000,   1,1, 0
   50,'1 ',1,  69,  69,     4.154,     0.000,     0.000,     0.000,     0.000,     0.000,   1,1, 0
   51,'1 ',1,  67,  67,     4.179,     0.000,     0.000,     0.000,     0.000,     0.000,   1,1, 0
   52,'1 ',1,  67,  67,     4.179,     0.000,     0.000,     0.000,     0.000,     0.000,   1,1, 0
   53,'1 ',1,  67,  67,     8.357,     0.000,     0.000,     0.000,     0.000,     0.000,   1,1, 0
   55,'1 ',1,  67,  67,    12.536,     0.000,     0.000,     0.000,     0.000,     0.000,   1,1, 0
   56,'1 ',1,  67,  67,     8.357,     0.000,     0.000,     0.000,     0.000,     0.000,   1,1, 0
   57,'1 ',1,  67,  67,     8.357,     0.000,     0.000,     0.000,     0.000,     0.000,   1,1, 0
   58,'1 ',1,  67,  67,     6.268,     0.000,     0.000,     0.000,     0.000,     0.000,   1,1, 0
   59,'1 ',1,  69,  69,    14.539,     0.000,     0.000,     0.000,     0.000,     0.000,   1,1, 0
   60,'1 ',1,  69,  69,     1.868,     0.000,     0.000,     0.000,     0.000,     0.000,   1,1, 0
   61,'1 ',1,  67,  67,    12.536,     0.000,     0.000,     0.000,     0.000,     0.000,   1,1, 0
   64,'1 ',1,  69,  69,     2.077,     0.000,     0.000,     0.000,     0.000,     0.000,   1,1, 0
   65,'1 ',1,  65,  65,     5.050,     0.000,     0.000,     0.000,     0.000,     0.000,   1,1, 0
   66,'1 ',1,  65,  65,     5.050,     0.000,     0.000,     0.000,     0.000,     0.000,   1,1, 0
   67,'1 ',1,  65,  65,     2.525,     0.000,     0.000,     0.000,     0.000,     0.000,   1,1, 0
   68,'1 ',1,  65,  65,     5.050,     0.000,     0.000,     0.000,     0.000,     0.000,   1,1, 0
   69,'1 ',1,  65,  65,    12.625,     0.000,     0.000,     0.000,     0.000,     0.000,   1,1, 0
   70,'1 ',1,  65,  65,     5.050,     0.000,     0.000,     0.000,     0.000,     0.000,   1,1, 0
   71,'1 ',1,  65,  65,     7.575,     0.000,     0.000,     0.000,     0.000,     0.000,   1,1, 0
   72,'1 ',1,  65,  65,     2.525,     0.000,     0.000,     0.000,     0.000,     0.000,   1,1, 0
   73,'1 ',1,  65,  65,     5.050,     0.000,     0.000,     0.000,     0.000,     0.000,   1,1, 0
   74,'1 ',1,  65,  65,    10.100,     0.000,     0.000,     0.000,     0.000,     0.000,   1,1, 0
   75,'1 ',1,  65,  65,     2.525,     0.000,     0.000,     0.000,     0.000,     0.000,   1,1, 0
   76,'1 ',1,  65,  65,     5.050,     0.000,     0.000,     0.000,     0.000,     0.000,   1,1, 0
   77,'1 ',1,  65,  65,    12.625,     0.000,     0.000,     0.000,     0.000,     0.000,   1,1, 0
   78,'1 ',1,  65,  65,     5.050,     0.000,     0.000,     0.000,     0.000,     0.000,   1,1, 0
   80,'1 ',1,  69,  69,     4.154,     0.000,     0.000,     0.000,     0.000,     0.000,   1,1, 0
   81,'1 ',1,  67,  67,    20.893,     0.000,     0.000,     0.000,     0.000,     0.000,   1,1, 0
   82,'1 ',1,  69,  69,     2.077,     0.000,     0.000,     0.000,     0.000,     0.000,   1,1, 0
   83,'1 ',1,  69,  69,     6.231,     0.000,     0.000,     0.000,     0.000,     0.000,   1,1, 0
   84,'1 ',1,  70,  70,     3.422,     0.000,     0.000,     0.000,     0.000,     0.000,   1,1, 0
   85,'1 ',1,  65,  65,     2.525,     0.000,     0.000,     0.000,     0.000,     0.000,   1,1, 0
   86,'1 ',1,  65,  65,     5.050,     0.000,     0.000,     0.000,     0.000,     0.000,   1,1, 0
   87,'1 ',1,  65,  65,     7.575,     0.000,     0.000,     0.000,     0.000,     0.000,   1,1, 0
   88,'1 ',1,  65,  65,     5.050,     0.000,     0.000,     0.000,     0.000,     0.000,   1,1, 0
   89,'1 ',1,  65,  65,     2.525,     0.000,     0.000,     0.000,     0.000,     0.000,   1,1, 0
   90,'1 ',1,  65,  65,     5.050,     0.000,     0.000,     0.000,     0.000,     0.000,   1,1, 0
   91,'1 ',1,  65,  65,     5.050,     0.000,     0.000,     0.000,     0.000,     0.000,   1,1, 0
   92,'1 ',1,  66,  66,    14.398,     0.000,     0.000,     0.000,     0.000,     0.000,   1,1, 0
   93,'1 ',1,  66,  66,    14.398,     0.000,     0.000,     0.000,     0.000,     0.000,   1,1, 0
   94,'1 ',1,  66,  66,    14.398,     0.000,     0.000,     0.000,     0.000,     0.000,   1,1, 0
   95,'1 ',1,  66,  66,     7.199,     0.000,     0.000,     0.000,     0.000,     0.000,   1,1, 0
   96,'1 ',1,  66,  66,     7.199,     0.000,     0.000,     0.000,     0.000,     0.000,   1,1, 0
   97,'1 ',1,  66,  66,    14.398,     0.000,     0.000,     0.000,     0.000,     0.000,   1,1, 0
   98,'1 ',1,  66,  66,    14.398,     0.000,     0.000,     0.000,     0.000,     0.000,   1,1, 0
   99,'1 ',1,  66,  66,    14.398,     0.000,     0.000,     0.000,     0.000,     0.000,   1,1, 0
  100,'1 ',1,  66,  66,     7.199,     0.000,     0.000,     0.000,     0.000,     0.000,   1,1, 0
  101,'1 ',1,  65,  65,     5.050,     0.000,     0.000,     0.000,     0.000,     0.000,   1,1, 0
  102,'1 ',1,  65,  65,     5.050,     0.000,     0.000,     0.000,     0.000,     0.000,   1,1, 0
  103,'1 ',1,  65,  65,     2.525,     0.000,     0.000,     0.000,     0.000,     0.000,   1,1, 0
  104,'1 ',1,  65,  65,     5.050,     0.000,     0.000,     0.000,     0.000,     0.000,   1,1, 0
  105,'1 ',1,  65,  65,    20.200,     0.000,     0.000,     0.000,     0.000,     0.000,   1,1, 0
  106,'1 ',1,  65,  65,     5.050,     0.000,     0.000,     0.000,     0.000,     0.000,   1,1, 0
  107,'1 ',1,  65,  65,    12.625,     0.000,     0.000,     0.000,     0.000,     0.000,   1,1, 0
  108,'1 ',1,  67,  67,     8.357,     0.000,     0.000,     0.000,     0.000,     0.000,   1,1, 0
  109,'1 ',1,  67,  67,     8.357,     0.000,     0.000,     0.000,     0.000,     0.000,   1,1, 0
  110,'1 ',1,  67,  67,    12.536,     0.000,     0.000,     0.000,     0.000,     0.000,   1,1, 0
  111,'1 ',1,  67,  67,     8.357,     0.000,     0.000,     0.000,     0.000,     0.000,   1,1, 0
  112,'1 ',1,  67,  67,     8.357,     0.000,     0.000,     0.000,     0.000,     0.000,   1,1, 0
  113,'1 ',1,  67,  67,     8.357,     0.000,     0.000,     0.000,     0.000,     0.000,   1,1, 0
  114,'1 ',1,  67,  67,     8.357,     0.000,     0.000,     0.000,     0.000,     0.000,   1,1, 0
  115,'1 ',1,  67,  67,     8.357,     0.000,     0.000,     0.000,     0.000,     0.000,   1,1, 0
  116,'1 ',1,  67,  67,     8.357,     0.000,     0.000,     0.000,     0.000,     0.000,   1,1, 0
  117,'1 ',1,  67,  67,    12.536,     0.000,     0.000,     0.000,     0.000,     0.000,   1,1, 0
  118,'1 ',1,  67,  67,     8.357,     0.000,     0.000,     0.000,     0.000,     0.000,   1,1, 0
  119,'1 ',1,  67,  67,     8.357,     0.000,     0.000,     0.000,     0.000,     0.000,   1,1, 0
  120,'1 ',1,  67,  67,     8.357,     0.000,     0.000,     0.000,     0.000,     0.000,   1,1, 0
  121,'1 ',1,  67,  67,     8.357,     0.000,     0.000,     0.000,     0.000,     0.000,   1,1, 0
  122,'1 ',1,  67,  67,     8.357,     0.000,     0.000,     0.000,     0.000,     0.000,   1,1, 0
  123,'1 ',1,  67,  67,     8.357,     0.000,     0.000,     0.000,     0.000,     0.000,   1,1, 0
  124,'1 ',1,  67,  67,    25.072,     0.000,     0.000,     0.000,     0.000,     0.000,   1,1, 0
  125,'1 ',1,  69,  69,     2.077,     0.000,     0.000,     0.000,     0.000,     0.000,   1,1, 0
  126,'1 ',1,  69,  69,     2.077,     0.000,     0.000,     0.000,     0.000,     0.000,   1,1, 0
  127,'1 ',1,  70,  70,    34.218,     0.000,     0.000,     0.000,     0.000,     0.000,   1,1, 0
  128,'1 ',1,  66,  66,    43.195,     0.000,     0.000,     0.000,     0.000,     0.000,   1,1, 0
  129,'1 ',1,  66,  66,    21.598,     0.000,     0.000,     0.000,     0.000,     0.000,   1,1, 0
  130,'1 ',1,  66,  66,     7.199,     0.000,     0.000,     0.000,     0.000,     0.000,   1,1, 0
  131,'1 ',1,  67,  67,    25.072,     0.000,     0.000,     0.000,     0.000,     0.000,   1,1, 0
  133,'1 ',1,  67,  67,    12.536,     0.000,     0.000,     0.000,     0.000,     0.000,   1,1, 0
  134,'1 ',1,  65,  65,    12.625,     0.000,     0.000,     0.000,     0.000,     0.000,   1,1, 0
  135,'1 ',1,  65,  65,     5.050,     0.000,     0.000,     0.000,     0.000,     0.000,   1,1, 0
  136,'1 ',1,  65,  65,     5.050,     0.000,     0.000,     0.000,     0.000,     0.000,   1,1, 0
  137,'1 ',1,  65,  65,     5.050,     0.000,     0.000,     0.000,     0.000,     0.000,   1,1, 0
  139,'1 ',1,  65,  65,     7.575,     0.000,     0.000,     0.000,     0.000,     0.000,   1,1, 0
  140,'1 ',1,  65,  65,    10.759,     0.000,     0.000,     0.000,     0.000,     0.000,   1,1, 0
  141,'1 ',1,  65,  65,     5.050,     0.000,     0.000,     0.000,     0.000,     0.000,   1,1, 0
  142,'1 ',1,  65,  65,     7.575,     0.000,     0.000,     0.000,     0.000,     0.000,   1,1, 0
  143,'1 ',1,  65,  65,     5.050,     0.000,     0.000,     0.000,     0.000,     0.000,   1,1, 0
  144,'1 ',1,  65,  65,     5.050,     0.000,     0.000,     0.000,     0.000,     0.000,   1,1, 0
  145,'1 ',1,  65,  65,     7.575,     0.000,     0.000,     0.000,     0.000,     0.000,   1,1, 0
  146,'1 ',1,  65,  65,     2.525,     0.000,     0.000,     0.000,     0.000,     0.000,   1,1, 0
  147,'1 ',1,  67,  67,     4.179,     0.000,     0.000,     0.000,     0.000,     0.000,   1,1, 0
  148,'1 ',1,  67,  67,     4.179,     0.000,     0.000,     0.000,     0.000,     0.000,   1,1, 0
  149,'1 ',1,  67,  67,    12.536,     0.000,     0.000,     0.000,     0.000,     0.000,   1,1, 0
  150,'1 ',1,  67,  67,     8.357,     0.000,     0.000,     0.000,     0.000,     0.000,   1,1, 0
  151,'1 ',1,  67,  67,     4.179,     0.000,     0.000,     0.000,     0.000,     0.000,   1,1, 0
  152,'1 ',1,  67,  67,     8.357,     0.000,     0.000,     0.000,     0.000,     0.000,   1,1, 0
  153,'1 ',1,  67,  67,     4.179,     0.000,     0.000,     0.000,     0.000,     0.000,   1,1, 0
  154,'1 ',1,  67,  67,    12.536,     0.000,     0.000,     0.000,     0.000,     0.000,   1,1, 0
  155,'1 ',1,  67,  67,     4.179,     0.000,     0.000,     0.000,     0.000,     0.000,   1,1, 0
  156,'1 ',1,  67,  67,     8.357,     0.000,     0.000,     0.000,     0.000,     0.000,   1,1, 0
  157,'1 ',1,  67,  67,     4.179,     0.000,     0.000,     0.000,     0.000,     0.000,   1,1, 0
  158,'1 ',1,  67,  67,     4.179,     0.000,     0.000,     0.000,     0.000,     0.000,   1,1, 0
  159,'1 ',1,  65,  65,     5.050,     0.000,     0.000,     0.000,     0.000,     0.000,   1,1, 0
  160,'1 ',1,  65,  65,     2.525,     0.000,     0.000,     0.000,     0.000,     0.000,   1,1, 0
  161,'1 ',1,  65,  65,     5.050,     0.000,     0.000,     0.000,     0.000,     0.000,   1,1, 0
  162,'1 ',1,  65,  65,    10.100,     0.000,     0.000,     0.000,     0.000,     0.000,   1,1, 0
  163,'1 ',1,  65,  65,    12.625,     0.000,     0.000,     0.000,     0.000,     0.000,   1,1, 0
  164,'1 ',1,  65,  65,     2.525,     0.000,     0.000,     0.000,     0.000,     0.000,   1,1, 0
  165,'1 ',1,  65,  65,     2.525,     0.000,     0.000,     0.000,     0.000,     0.000,   1,1, 0
  166,'1 ',1,  65,  65,     2.525,     0.000,     0.000,     0.000,     0.000,     0.000,   1,1, 0
  167,'1 ',1,  67,  67,     8.357,     0.000,     0.000,     0.000,     0.000,     0.000,   1,1, 0
  168,'1 ',1,  69,  69,     2.077,     0.000,     0.000,     0.000,     0.000,     0.000,   1,1, 0
  169,'1 ',1,  67,  67,     8.357,     0.000,     0.000,     0.000,     0.000,     0.000,   1,1, 0
  170,'1 ',1,  67,  67,     8.357,     0.000,     0.000,     0.000,     0.000,     0.000,   1,1, 0
  171,'1 ',1,  67,  67,    33.429,     0.000,     0.000,     0.000,     0.000,     0.000,   1,1, 0
  172,'1 ',1,  67,  67,     8.357,     0.000,     0.000,     0.000,     0.000,     0.000,   1,1, 0
  173,'1 ',1,  67,  67,    12.536,     0.000,     0.000,     0.000,     0.000,     0.000,   1,1, 0
  174,'1 ',1,  67,  67,     8.357,     0.000,     0.000,     0.000,     0.000,     0.000,   1,1, 0
  175,'1 ',1,  67,  67,     8.357,     0.000,     0.000,     0.000,     0.000,     0.000,   1,1, 0
  176,'1 ',1,  67,  67,     8.357,     0.000,     0.000,     0.000,     0.000,     0.000,   1,1, 0
  177,'1 ',1,  67,  67,     4.179,     0.000,     0.000,     0.000,     0.000,     0.000,   1,1, 0
  178,'1 ',1,  67,  67,    12.536,     0.000,     0.000,     0.000,     0.000,     0.000,   1,1, 0
  179,'1 ',1,  67,  67,     8.357,     0.000,     0.000,     0.000,     0.000,     0.000,   1,1, 0
  180,'1 ',1,  67,  67,     8.357,     0.000,     0.000,     0.000,     0.000,     0.000,   1,1, 0
  181,'1 ',1,  67,  67,     8.357,     0.000,     0.000,     0.000,     0.000,     0.000,   1,1, 0
  182,'1 ',1,  67,  67,     8.357,     0.000,     0.000,     0.000,     0.000,     0.000,   1,1, 0
  183,'1 ',1,  67,  67,     8.357,     0.000,     0.000,     0.000,     0.000,     0.000,   1,1, 0
  184,'1 ',1,  67,  67,     8.357,     0.000,     0.000,     0.000,     0.000,     0.000,   1,1, 0
  185,'1 ',1,  67,  67,     8.357,     0.000,     0.000,     0.000,     0.000,     0.000,   1,1, 0
  186,'1 ',1,  69,  69,     6.231,     0.000,     0.000,     0.000,     0.000,     0.000,   1,1, 0
  187,'1 ',1,  69,  69,     4.154,     0.000,     0.000,     0.000,     0.000,     0.000,   1,1, 0
  188,'1 ',1,  69,  69,     4.154,     0.000,     0.000,     0.000,     0.000,     0.000,   1,1, 0
  189,'1 ',1,  69,  69,     2.077,     0.000,     0.000,     0.000,     0.000,     0.000,   1,1, 0
  190,'1 ',1,  68,  68,    29.619,     0.000,     0.000,     0.000,     0.000,     0.000,   1,1, 0
  191,'1 ',1,  68,  68,    29.619,     0.000,     0.000,     0.000,     0.000,     0.000,   1,1, 0
  192,'1 ',1,  68,  68,    44.428,     0.000,     0.000,     0.000,     0.000,     0.000,   1,1, 0
  193,'1 ',1,  68,  68,    59.238,     0.000,     0.000,     0.000,     0.000,     0.000,   1,1, 0
  194,'1 ',1,  70,  70,    20.531,     0.000,     0.000,     0.000,     0.000,     0.000,   1,1, 0
  195,'1 ',1,  70,  70,     6.844,     0.000,     0.000,     0.000,     0.000,     0.000,   1,1, 0
  196,'1 ',1,  70,  70,     6.844,     0.000,     0.000,     0.000,     0.000,     0.000,   1,1, 0
  197,'1 ',1,  66,  66,    14.398,     0.000,     0.000,     0.000,     0.000,     0.000,   1,1, 0
  198,'1 ',1,  66,  66,    14.398,     0.000,     0.000,     0.000,     0.000,     0.000,   1,1, 0
  199,'1 ',1,  66,  66,    14.398,     0.000,     0.000,     0.000,     0.000,     0.000,   1,1, 0
  200,'1 ',1,  66,  66,    21.598,     0.000,     0.000,     0.000,     0.000,     0.000,   1,1, 0
  201,'1 ',1,  66,  66,    14.398,     0.000,     0.000,     0.000,     0.000,     0.000,   1,1, 0
  202,'1 ',1,  67,  67,     8.357,     0.000,     0.000,     0.000,     0.000,     0.000,   1,1, 0
  203,'1 ',1,  69,  69,     4.154,     0.000,     0.000,     0.000,     0.000,     0.000,   1,1, 0
  204,'1 ',1,  69,  69,     6.231,     0.000,     0.000,     0.000,     0.000,     0.000,   1,1, 0
  205,'1 ',1,  69,  69,     8.308,     0.000,     0.000,     0.000,     0.000,     0.000,   1,1, 0
  206,'1 ',1,  69,  69,     4.154,     0.000,     0.000,     0.000,     0.000,     0.000,   1,1, 0
  207,'1 ',1,  67,  67,     4.179,     0.000,     0.000,     0.000,     0.000,     0.000,   1,1, 0
...
0 / END OF LOAD DATA, BEGIN FIXED SHUNT DATA
0 / END OF FIXED SHUNT DATA, BEGIN GENERATOR DATA
    6,'1 ',     2.745,    -0.209,     1.800,    -1.500,1.02000,    0,   100.000,   0.00000,   1.00000,   0.00000,   0.00000,1.00000,1,  100.0,     2.800,     1.000,   1,1.0000,   0,1.0000,   0,1.0000,   0,1.0000,0, 1.0000
    6,'2 ',     2.745,    -0.209,     1.800,    -1.500,1.02000,    0,   100.000,   0.00000,   1.00000,   0.00000,   0.00000,1.00000,1,  100.0,     2.800,     1.000,   1,1.0000,   0,1.0000,   0,1.0000,   0,1.0000,0, 1.0000
    6,'3 ',     2.941,    -0.209,     2.000,    -1.700,1.02000,    0,   100.000,   0.00000,   1.00000,   0.00000,   0.00000,1.00000,1,  100.0,     3.000,     1.000,   1,1.0000,   0,1.0000,   0,1.0000,   0,1.0000,0, 1.0000
    6,'4 ',     2.941,    -0.209,     2.000,    -1.700,1.02000,    0,   100.000,   0.00000,   1.00000,   0.00000,   0.00000,1.00000,1,  100.0,     3.000,     1.000,   1,1.0000,   0,1.0000,   0,1.0000,   0,1.0000,0, 1.0000
   15,'1 ',     7.842,    -1.275,     5.200,    -4.400,1.02000,    0,   100.000,   0.00000,   1.00000,   0.00000,   0.00000,1.00000,1,  100.0,     8.000,     7.000,   1,1.0000,   0,1.0000,   0,1.0000,   0,1.0000,0, 1.0000
   15,'2 ',     7.842,    -1.275,     5.200,    -4.400,1.02000,    0,   100.000,   0.00000,   1.00000,   0.00000,   0.00000,1.00000,1,  100.0,     8.000,     7.000,   1,1.0000,   0,1.0000,   0,1.0000,   0,1.0000,0, 1.0000
   17,'1 ',     0.000,    -9.900,    11.700,    -9.900,1.01000,    0,   100.000,   0.00000,   1.00000,   0.00000,   0.00000,1.00000,0,  100.0,    18.000,    10.500,   1,1.0000,   0,1.0000,   0,1.0000,   0,1.0000,0, 1.0000
   17,'10',     0.000,   -23.000,    27.200,   -23.000,1.01000,    0,   100.000,   0.00000,   1.00000,   0.00000,   0.00000,1.00000,0,  100.0,    41.800,    30.000,   1,1.0000,   0,1.0000,   0,1.0000,   0,1.0000,0, 1.0000
   17,'11',    30.000,   -23.000,    27.200,   -23.000,1.01000,    0,   100.000,   0.00000,   1.00000,   0.00000,   0.00000,1.00000,1,  100.0,    41.800,    30.000,   1,1.0000,   0,1.0000,   0,1.0000,   0,1.0000,0, 1.0000
   17,'12',   183.000,   -27.652,   122.200,  -103.400,1.01000,    0,   100.000,   0.00000,   1.00000,   0.00000,   0.00000,1.00000,1,  100.0,   188.000,    15.000,   1,1.0000,   0,1.0000,   0,1.0000,   0,1.0000,0, 1.0000
   17,'13',   183.000,   -27.652,   122.200,  -103.400,1.01000,    0,   100.000,   0.00000,   1.00000,   0.00000,   0.00000,1.00000,1,  100.0,   188.000,    15.000,   1,1.0000,   0,1.0000,   0,1.0000,   0,1.0000,0, 1.0000
   17,'2 ',    11.400,    -9.900,    11.700,    -9.900,1.01000,    0,   100.000,   0.00000,   1.00000,   0.00000,   0.00000,1.00000,1,  100.0,    18.000,    11.400,   1,1.0000,   0,1.0000,   0,1.0000,   0,1.0000,0, 1.0000
   17,'3 ',    11.000,    -9.900,    11.700,    -9.900,1.01000,    0,   100.000,   0.00000,   1.00000,   0.00000,   0.00000,1.00000,1,  100.0,    18.000,    11.000,   1,1.0000,   0,1.0000,   0,1.0000,   0,1.0000,0, 1.0000
   17,'4 ',    11.200,    -9.900,    11.700,    -9.900,1.01000,    0,   100.000,   0.00000,   1.00000,   0.00000,   0.00000,1.00000,1,  100.0,    18.000,    11.200,   1,1.0000,   0,1.0000,   0,1.0000,   0,1.0000,0, 1.0000
   17,'5 ',    11.400,    -9.900,    11.700,    -9.900,1.01000,    0,   100.000,   0.00000,   1.00000,   0.00000,   0.00000,1.00000,1,  100.0,    18.000,    11.400,   1,1.0000,   0,1.0000,   0,1.0000,   0,1.0000,0, 1.0000
   17,'6 ',    10.700,    -9.900,    11.700,    -9.900,1.01000,    0,   100.000,   0.00000,   1.00000,   0.00000,   0.00000,1.00000,1,  100.0,    18.000,    10.700,   1,1.0000,   0,1.0000,   0,1.0000,   0,1.0000,0, 1.0000
   17,'7 ',     9.000,    -9.900,    11.700,    -9.900,1.01000,    0,   100.000,   0.00000,   1.00000,   0.00000,   0.00000,1.00000,1,  100.0,    18.000,     9.000,   1,1.0000,   0,1.0000,   0,1.0000,   0,1.0000,0, 1.0000
   17,'8 ',    29.800,   -23.000,    27.200,   -23.000,1.01000,    0,   100.000,   0.00000,   1.00000,   0.00000,   0.00000,1.00000,1,  100.0,    41.800,    29.800,   1,1.0000,   0,1.0000,   0,1.0000,   0,1.0000,0, 1.0000
   17,'9 ',     0.000,     0.000,    27.200,   -23.000,1.01000,    0,   100.000,   0.00000,   1.00000,   0.00000,   0.00000,1.00000,0,  100.0,    41.800,    30.000,   1,1.0000,   0,1.0000,   0,1.0000,   0,1.0000,0, 1.0000
   18,'1 ',    15.899,    -8.800,    10.400,    -8.800,1.01000,    0,   100.000,   0.00000,   1.00000,   0.00000,   0.00000,1.00000,1,  100.0,    16.000,    10.000,   1,1.0000,   0,1.0000,   0,1.0000,   0,1.0000,0, 1.0000
   18,'2 ',    52.664,   -16.382,    34.500,   -29.200,1.01000,    0,   100.000,   0.00000,   1.00000,   0.00000,   0.00000,1.00000,1,  100.0,    53.000,    37.000,   1,1.0000,   0,1.0000,   0,1.0000,   0,1.0000,0, 1.0000
   18,'3 ',    52.664,   -16.382,    34.500,   -29.200,1.01000,    0,   100.000,   0.00000,   1.00000,   0.00000,   0.00000,1.00000,1,  100.0,    53.000,    37.000,   1,1.0000,   0,1.0000,   0,1.0000,   0,1.0000,0, 1.0000
   18,'4 ',    54.651,   -16.382,    35.800,   -30.300,1.01000,    0,   100.000,   0.00000,   1.00000,   0.00000,   0.00000,1.00000,1,  100.0,    55.000,    40.000,   1,1.0000,   0,1.0000,   0,1.0000,   0,1.0000,0, 1.0000
   18,'5 ',     0.000,     0.000,    35.800,   -30.300,1.01000,    0,   100.000,   0.00000,   1.00000,   0.00000,   0.00000,1.00000,0,  100.0,    55.000,    44.100,   1,1.0000,   0,1.0000,   0,1.0000,   0,1.0000,0, 1.0000
   19,'1 ',    15.899,    -8.800,    10.400,    -8.800,1.02000,    0,   100.000,   0.00000,   1.00000,   0.00000,   0.00000,1.00000,1,  100.0,    16.000,    10.600,   1,1.0000,   0,1.0000,   0,1.0000,   0,1.0000,0, 1.0000
   19,'2 ',     0.000,     0.000,   251.600,  -212.900,1.02000,    0,   100.000,   0.00000,   1.00000,   0.00000,   0.00000,1.00000,0,  100.0,   387.000,    40.000,   1,1.0000,   0,1.0000,   0,1.0000,   0,1.0000,0, 1.0000
   19,'3 ',   384.548,   -12.677,   251.600,  -212.900,1.02000,    0,   100.000,   0.00000,   1.00000,   0.00000,   0.00000,1.00000,1,  100.0,   387.000,    30.000,   1,1.0000,   0,1.0000,   0,1.0000,   0,1.0000,0, 1.0000
   19,'4 ',   387.000,   -12.677,   251.600,  -212.900,1.02000,    0,   100.000,   0.00000,   1.00000,   0.00000,   0.00000,1.00000,1,  100.0,   387.000,    40.000,   1,1.0000,   0,1.0000,   0,1.0000,   0,1.0000,0, 1.0000
   19,'5 ',   387.000,   -12.677,   251.600,  -212.900,1.02000,    0,   100.000,   0.00000,   1.00000,   0.00000,   0.00000,1.00000,1,  100.0,   387.000,    40.000,   1,1.0000,   0,1.0000,   0,1.0000,   0,1.0000,0, 1.0000
   19,'x ',   130.000,   -12.677,  9900.000, -9900.000,1.02000,    0,   100.000,   0.00000,   1.00000,   0.00000,   0.00000,1.00000,1,  100.0,   130.000,   130.000,   1,1.0000,   0,1.0000,   0,1.0000,   0,1.0000,0, 1.0000
   21,'1 ',    10.782,     7.200,     7.200,    -6.100,1.02000,    0,   100.000,   0.00000,   1.00000,   0.00000,   0.00000,1.00000,1,  100.0,    11.000,     0.200,   1,1.0000,   0,1.0000,   0,1.0000,   0,1.0000,0, 1.0000
   21,'2 ',    11.763,     7.800,     7.800,    -6.600,1.02000,    0,   100.000,   0.00000,   1.00000,   0.00000,   0.00000,1.00000,1,  100.0,    12.000,     0.200,   1,1.0000,   0,1.0000,   0,1.0000,   0,1.0000,0, 1.0000
   21,'3 ',    12.743,     8.500,     8.500,    -7.200,1.02000,    0,   100.000,   0.00000,   1.00000,   0.00000,   0.00000,1.00000,1,  100.0,    13.000,     0.200,   1,1.0000,   0,1.0000,   0,1.0000,   0,1.0000,0, 1.0000
   24,'1 ',     8.822,     4.911,     5.900,    -5.000,1.02000,    0,   100.000,   0.00000,   1.00000,   0.00000,   0.00000,1.00000,1,  100.0,     9.000,     3.000,   1,1.0000,   0,1.0000,   0,1.0000,   0,1.0000,0, 1.0000
   24,'2 ',     8.822,     4.911,     5.900,    -5.000,1.02000,    0,   100.000,   0.00000,   1.00000,   0.00000,   0.00000,1.00000,1,  100.0,     9.000,     3.000,   1,1.0000,   0,1.0000,   0,1.0000,   0,1.0000,0, 1.0000
   24,'3 ',     8.822,     4.911,     5.900,    -5.000,1.02000,    0,   100.000,   0.00000,   1.00000,   0.00000,   0.00000,1.00000,1,  100.0,     9.000,     3.000,   1,1.0000,   0,1.0000,   0,1.0000,   0,1.0000,0, 1.0000
   24,'4 ',     8.822,     4.911,     5.900,    -5.000,1.02000,    0,   100.000,   0.00000,   1.00000,   0.00000,   0.00000,1.00000,1,  100.0,     9.000,     3.000,   1,1.0000,   0,1.0000,   0,1.0000,   0,1.0000,0, 1.0000
   26,'C1',   595.000,    37.491,   446.250,  -416.500,1.02000,    0,   100.000,   0.00000,   1.00000,   0.00000,   0.00000,1.00000,1,  100.0,   595.000,   320.000,   1,1.0000,   0,1.0000,   0,1.0000,   0,1.0000,0, 1.0000
   26,'C2',   650.000,    37.491,   487.500,  -455.000,1.02000,    0,   100.000,   0.00000,   1.00000,   0.00000,   0.00000,1.00000,1,  100.0,   650.000,   320.000,   1,1.0000,   0,1.0000,   0,1.0000,   0,1.0000,0, 1.0000
   27,'C1',   121.823,    44.838,    91.950,   -85.820,1.02000,    0,   100.000,   0.00000,   1.00000,   0.00000,   0.00000,1.00000,1,  100.0,   122.600,    42.000,   1,1.0000,   0,1.0000,   0,1.0000,   0,1.0000,0, 1.0000
   28,'C1',     0.000,     0.000,    47.175,   -44.030,1.02000,    0,   100.000,   0.00000,   1.00000,   0.00000,   0.00000,1.00000,0,  100.0,    62.900,    35.000,   1,1.0000,   0,1.0000,   0,1.0000,   0,1.0000,0, 1.0000
   29,'1 ',   111.290,    -7.888,    72.800,   -61.600,1.02000,    0,   100.000,   0.00000,   1.00000,   0.00000,   0.00000,1.00000,1,  100.0,   112.000,    32.000,   1,1.0000,   0,1.0000,   0,1.0000,   0,1.0000,0, 1.0000
   30,'1 ',     4.074,    -1.637,     2.700,    -2.300,1.02000,    0,   100.000,   0.00000,   1.00000,   0.00000,   0.00000,1.00000,1,  100.0,     4.100,     0.000,   1,1.0000,   0,1.0000,   0,1.0000,   0,1.0000,1, 1.0000
   30,'2 ',    55.049,    -1.637,    36.000,   -30.500,1.02000,    0,   100.000,   0.00000,   1.00000,   0.00000,   0.00000,1.00000,1,  100.0,    55.400,     0.000,   1,1.0000,   0,1.0000,   0,1.0000,   0,1.0000,1, 1.0000
   31,'1 ',     0.980,    -0.600,     0.700,    -0.600,1.02000,    0,   100.000,   0.00000,   1.00000,   0.00000,   0.00000,1.00000,1,  100.0,     1.000,     0.200,   1,1.0000,   0,1.0000,   0,1.0000,   0,1.0000,0, 1.0000
   31,'2 ',     0.980,    -0.600,     0.700,    -0.600,1.02000,    0,   100.000,   0.00000,   1.00000,   0.00000,   0.00000,1.00000,1,  100.0,     1.000,     0.200,   1,1.0000,   0,1.0000,   0,1.0000,   0,1.0000,0, 1.0000
   31,'3 ',     2.549,    -1.400,     1.700,    -1.400,1.02000,    0,   100.000,   0.00000,   1.00000,   0.00000,   0.00000,1.00000,1,  100.0,     2.600,     0.900,   1,1.0000,   0,1.0000,   0,1.0000,   0,1.0000,0, 1.0000
   31,'4 ',     2.549,    -1.400,     1.700,    -1.400,1.02000,    0,   100.000,   0.00000,   1.00000,   0.00000,   0.00000,1.00000,1,  100.0,     2.600,     0.900,   1,1.0000,   0,1.0000,   0,1.0000,   0,1.0000,0, 1.0000
   31,'5 ',     2.549,    -1.400,     1.700,    -1.400,1.02000,    0,   100.000,   0.00000,   1.00000,   0.00000,   0.00000,1.00000,1,  100.0,     2.600,     2.300,   1,1.0000,   0,1.0000,   0,1.0000,   0,1.0000,0, 1.0000
   31,'6 ',    24.113,    -3.042,    16.000,   -13.500,1.02000,    0,   100.000,   0.00000,   1.00000,   0.00000,   0.00000,1.00000,1,  100.0,    24.600,     6.000,   1,1.0000,   0,1.0000,   0,1.0000,   0,1.0000,0, 1.0000
   31,'7 ',    24.113,    -3.042,    16.000,   -13.500,1.02000,    0,   100.000,   0.00000,   1.00000,   0.00000,   0.00000,1.00000,1,  100.0,    24.600,     6.000,   1,1.0000,   0,1.0000,   0,1.0000,   0,1.0000,0, 1.0000
   32,'C1',   147.000,   -32.951,   110.250,  -102.900,1.02000,    0,   100.000,   0.00000,   1.00000,   0.00000,   0.00000,1.00000,1,  100.0,   147.000,   113.000,   1,1.0000,   0,1.0000,   0,1.0000,   0,1.0000,0, 1.0000
   33,'C1',    56.241,    -9.888,    42.450,   -39.620,1.02000,    0,   100.000,   0.00000,   1.00000,   0.00000,   0.00000,1.00000,1,  100.0,    56.600,    44.000,   1,1.0000,   0,1.0000,   0,1.0000,   0,1.0000,0, 1.0000
   34,'C1',    57.036,    14.661,    43.050,   -40.180,1.02000,    0,   100.000,   0.00000,   1.00000,   0.00000,   0.00000,1.00000,1,  100.0,    57.400,    44.500,   1,1.0000,   0,1.0000,   0,1.0000,   0,1.0000,0, 1.0000
   35,'1 ',     3.137,     2.100,     2.100,    -1.800,1.02000,    0,   100.000,   0.00000,   1.00000,   0.00000,   0.00000,1.00000,1,  100.0,     3.200,     0.000,   1,1.0000,   0,1.0000,   0,1.0000,   0,1.0000,0, 1.0000
   35,'2 ',     3.137,     2.100,     2.100,    -1.800,1.02000,    0,   100.000,   0.00000,   1.00000,   0.00000,   0.00000,1.00000,1,  100.0,     3.200,     0.000,   1,1.0000,   0,1.0000,   0,1.0000,   0,1.0000,0, 1.0000
   35,'3 ',     3.921,     2.600,     2.600,    -2.200,1.02000,    0,   100.000,   0.00000,   1.00000,   0.00000,   0.00000,1.00000,1,  100.0,     4.000,     0.000,   1,1.0000,   0,1.0000,   0,1.0000,   0,1.0000,0, 1.0000
   35,'4 ',     3.921,     2.600,     2.600,    -2.200,1.02000,    0,   100.000,   0.00000,   1.00000,   0.00000,   0.00000,1.00000,1,  100.0,     4.000,     0.000,   1,1.0000,   0,1.0000,   0,1.0000,   0,1.0000,0, 1.0000
   35,'5 ',     5.881,     3.900,     3.900,    -3.300,1.02000,    0,   100.000,   0.00000,   1.00000,   0.00000,   0.00000,1.00000,1,  100.0,     6.000,     0.000,   1,1.0000,   0,1.0000,   0,1.0000,   0,1.0000,0, 1.0000
   35,'6 ',     6.862,     4.600,     4.600,    -3.900,1.02000,    0,   100.000,   0.00000,   1.00000,   0.00000,   0.00000,1.00000,1,  100.0,     7.000,     0.000,   1,1.0000,   0,1.0000,   0,1.0000,   0,1.0000,0, 1.0000
   37,'C1',   190.435,    23.531,   165.975,  -154.910,1.02000,    0,   100.000,   0.00000,   1.00000,   0.00000,   0.00000,1.00000,1,  100.0,   221.300,   104.000,   1,1.0000,   0,1.0000,   0,1.0000,   0,1.0000,0, 1.0000
   38,'1 ',    99.863,   -12.517,    70.400,   -55.300,1.02000,    0,   100.000,   0.00000,   1.00000,   0.00000,   0.00000,1.00000,1,  100.0,   100.500,     0.000,   1,1.0000,   0,1.0000,   0,1.0000,   0,1.0000,1, 1.0000
   39,'1 ',   125.202,   -11.061,    88.200,   -69.300,1.02000,    0,   100.000,   0.00000,   1.00000,   0.00000,   0.00000,1.00000,1,  100.0,   126.000,     0.000,   1,1.0000,   0,1.0000,   0,1.0000,   0,1.0000,1, 1.0000
   41,'C1',    65.284,    13.309,    49.275,   -45.990,1.02000,    0,   100.000,   0.00000,   1.00000,   0.00000,   0.00000,1.00000,1,  100.0,    65.700,    40.600,   1,1.0000,   0,1.0000,   0,1.0000,   0,1.0000,0, 1.0000
   52,'1 ',    16.097,    -0.083,    11.300,    -8.900,1.02000,    0,   100.000,   0.00000,   1.00000,   0.00000,   0.00000,1.00000,1,  100.0,    16.200,     0.000,   1,1.0000,   0,1.0000,   0,1.0000,   0,1.0000,1, 1.0000
   53,'1 ',    37.262,    -8.454,    26.300,   -20.600,1.02000,    0,   100.000,   0.00000,   1.00000,   0.00000,   0.00000,1.00000,1,  100.0,    37.500,     0.000,   1,1.0000,   0,1.0000,   0,1.0000,   0,1.0000,1, 1.0000
   60,'1 ',     0.784,     0.600,     0.600,    -0.400,1.02000,    0,   100.000,   0.00000,   1.00000,   0.00000,   0.00000,1.00000,1,  100.0,     0.800,     0.400,   1,1.0000,   0,1.0000,   0,1.0000,   0,1.0000,0, 1.0000
   60,'2 ',     9.802,     1.772,     7.000,    -5.500,1.02000,    0,   100.000,   0.00000,   1.00000,   0.00000,   0.00000,1.00000,1,  100.0,    10.000,     4.000,   1,1.0000,   0,1.0000,   0,1.0000,   0,1.0000,0, 1.0000
   63,'C1',     0.000,     0.000,    66.150,   -61.740,1.02000,    0,   100.000,   0.00000,   1.00000,   0.00000,   0.00000,1.00000,0,  100.0,    88.200,    60.000,   1,1.0000,   0,1.0000,   0,1.0000,   0,1.0000,0, 1.0000
   63,'C2',   653.643,    10.952,   490.275,  -457.590,1.02000,    0,   100.000,   0.00000,   1.00000,   0.00000,   0.00000,1.00000,1,  100.0,   653.700,   315.000,   1,1.0000,   0,1.0000,   0,1.0000,   0,1.0000,0, 1.0000
   69,'1 ',     0.000,     0.000,    17.200,   -13.500,1.02000,    0,   100.000,   0.00000,   1.00000,   0.00000,   0.00000,1.00000,0,  100.0,    24.500,     5.000,   1,1.0000,   0,1.0000,   0,1.0000,   0,1.0000,0, 1.0000
   69,'2 ',    24.345,    -1.973,    17.200,   -13.500,1.02000,    0,   100.000,   0.00000,   1.00000,   0.00000,   0.00000,1.00000,1,  100.0,    24.500,     5.000,   1,1.0000,   0,1.0000,   0,1.0000,   0,1.0000,0, 1.0000
   69,'3 ',    47.000,    -1.973,    33.100,   -26.000,1.02000,    0,   100.000,   0.00000,   1.00000,   0.00000,   0.00000,1.00000,1,  100.0,    47.300,     9.000,   1,1.0000,   0,1.0000,   0,1.0000,   0,1.0000,0, 1.0000
   69,'X ',     8.000,    -1.973,    20.000,   -20.000,1.02000,    0,   100.000,   0.00000,   1.00000,   0.00000,   0.00000,1.00000,1,  100.0,    10.000,     8.000,   1,1.0000,   0,1.0000,   0,1.0000,   0,1.0000,0, 1.0000
   79,'1 ',     0.000,     0.000,     0.700,    -0.600,1.02000,    0,   100.000,   0.00000,   1.00000,   0.00000,   0.00000,1.00000,0,  100.0,     1.000,     0.300,   1,1.0000,   0,1.0000,   0,1.0000,   0,1.0000,0, 1.0000
   79,'10',     7.452,    -4.100,     5.300,    -4.100,1.02000,    0,   100.000,   0.00000,   1.00000,   0.00000,   0.00000,1.00000,1,  100.0,     7.500,     4.000,   1,1.0000,   0,1.0000,   0,1.0000,   0,1.0000,0, 1.0000
   79,'11',    46.702,    -8.821,    32.900,   -25.900,1.02000,    0,   100.000,   0.00000,   1.00000,   0.00000,   0.00000,1.00000,1,  100.0,    47.000,     1.000,   1,1.0000,   0,1.0000,   0,1.0000,   0,1.0000,0, 1.0000
   79,'12',     0.000,     0.000,   109.300,   -85.900,1.02000,    0,   100.000,   0.00000,   1.00000,   0.00000,   0.00000,1.00000,0,  100.0,   156.200,    45.000,   1,1.0000,   0,1.0000,   0,1.0000,   0,1.0000,0, 1.0000
   79,'13',   178.859,    -8.821,   126.000,   -99.000,1.02000,    0,   100.000,   0.00000,   1.00000,   0.00000,   0.00000,1.00000,1,  100.0,   180.000,   110.000,   1,1.0000,   0,1.0000,   0,1.0000,   0,1.0000,0, 1.0000
   79,'14',   178.859,    -8.821,   126.000,   -99.000,1.02000,    0,   100.000,   0.00000,   1.00000,   0.00000,   0.00000,1.00000,1,  100.0,   180.000,   110.000,   1,1.0000,   0,1.0000,   0,1.0000,   0,1.0000,0, 1.0000
   79,'15',     0.000,     0.000,   140.000,  -110.000,1.02000,    0,   100.000,   0.00000,   1.00000,   0.00000,   0.00000,1.00000,0,  100.0,   200.000,    65.000,   1,1.0000,   0,1.0000,   0,1.0000,   0,1.0000,0, 1.0000
   79,'2 ',     0.000,     0.000,     0.900,    -0.700,1.02000,    0,   100.000,   0.00000,   1.00000,   0.00000,   0.00000,1.00000,0,  100.0,     1.300,     0.400,   1,1.0000,   0,1.0000,   0,1.0000,   0,1.0000,0, 1.0000
   79,'3 ',     0.000,     0.000,     1.000,    -0.800,1.02000,    0,   100.000,   0.00000,   1.00000,   0.00000,   0.00000,1.00000,0,  100.0,     1.400,     0.400,   1,1.0000,   0,1.0000,   0,1.0000,   0,1.0000,0, 1.0000
...